case_study/opendss_scripts/LVTestCase/di_idv_700_VLN_elem.Txt

NODE-GROUND VOLTAGES BY CIRCUIT ELEMENT

Power Delivery Elements

Bus       (node ref)  Phase    Magnitude, kV (pu)    Angle

ELEMENT = "Vsource.SOURCE"
SOURCEBUS  (  1)    1           6.6679 (    1.05) /_    0.0
SOURCEBUS  (  2)    2           6.6679 (    1.05) /_ -120.0
SOURCEBUS  (  3)    3           6.6679 (    1.05) /_  120.0
------------
SOURCEBUS  (  0)    0                0 (       0) /_    0.0
SOURCEBUS  (  0)    0                0 (       0) /_    0.0
SOURCEBUS  (  0)    0                0 (       0) /_    0.0

ELEMENT = "Transformer.TR1"
SOURCEBUS  (  1)    1           6.6679 (    1.05) /_    0.0
SOURCEBUS  (  2)    2           6.6679 (    1.05) /_ -120.0
SOURCEBUS  (  3)    3           6.6679 (    1.05) /_  120.0
SOURCEBUS  (  0)    0                0 (       0) /_    0.0
------------
1          (  4)    1          0.24243 (    1.05) /_  -30.0
1          (  5)    2          0.24243 (    1.05) /_ -150.0
1          (  6)    3          0.24243 (    1.05) /_   90.0
1          (  0)    0                0 (       0) /_    0.0

ELEMENT = "Line.LINE1"
1          (  4)    1          0.24243 (    1.05) /_  -30.0
1          (  5)    2          0.24243 (    1.05) /_ -150.0
1          (  6)    3          0.24243 (    1.05) /_   90.0
------------
2          ( 67)    1          0.24237 (   1.049) /_  -30.0
2          ( 68)    2          0.24237 (   1.049) /_ -150.0
2          ( 69)    3          0.24237 (   1.049) /_   90.0

ELEMENT = "Line.LINE2"
2          ( 67)    1          0.24237 (   1.049) /_  -30.0
2          ( 68)    2          0.24237 (   1.049) /_ -150.0
2          ( 69)    3          0.24237 (   1.049) /_   90.0
------------
3          ( 70)    1          0.24215 (   1.049) /_  -30.0
3          ( 71)    2          0.24215 (   1.049) /_ -150.0
3          ( 72)    3          0.24215 (   1.049) /_   90.0

ELEMENT = "Line.LINE3"
3          ( 70)    1          0.24215 (   1.049) /_  -30.0
3          ( 71)    2          0.24215 (   1.049) /_ -150.0
3          ( 72)    3          0.24215 (   1.049) /_   90.0
------------
10         ( 73)    1          0.24209 (   1.048) /_  -30.0
10         ( 74)    2          0.24209 (   1.048) /_ -150.0
10         ( 75)    3          0.24209 (   1.048) /_   90.0

ELEMENT = "Line.LINE4"
10         ( 73)    1          0.24209 (   1.048) /_  -30.0
10         ( 74)    2          0.24209 (   1.048) /_ -150.0
10         ( 75)    3          0.24209 (   1.048) /_   90.0
------------
11         ( 76)    1          0.24202 (   1.048) /_  -30.0
11         ( 77)    2          0.24202 (   1.048) /_ -150.0
11         ( 78)    3          0.24202 (   1.048) /_   90.0

ELEMENT = "Line.LINE5"
11         ( 76)    1          0.24202 (   1.048) /_  -30.0
11         ( 77)    2          0.24202 (   1.048) /_ -150.0
11         ( 78)    3          0.24202 (   1.048) /_   90.0
------------
12         ( 79)    1          0.24193 (   1.048) /_  -30.0
12         ( 80)    2          0.24193 (   1.048) /_ -150.0
12         ( 81)    3          0.24193 (   1.048) /_   90.0

ELEMENT = "Line.LINE6"
12         ( 79)    1          0.24193 (   1.048) /_  -30.0
12         ( 80)    2          0.24193 (   1.048) /_ -150.0
12         ( 81)    3          0.24193 (   1.048) /_   90.0
------------
13         ( 82)    1          0.24184 (   1.047) /_  -30.0
13         ( 83)    2          0.24184 (   1.047) /_ -150.0
13         ( 84)    3          0.24184 (   1.047) /_   90.0

ELEMENT = "Line.LINE7"
13         ( 82)    1          0.24184 (   1.047) /_  -30.0
13         ( 83)    2          0.24184 (   1.047) /_ -150.0
13         ( 84)    3          0.24184 (   1.047) /_   90.0
------------
14         ( 85)    1          0.24184 (   1.047) /_  -30.0
14         ( 86)    2          0.24184 (   1.047) /_ -150.0
14         ( 87)    3          0.24184 (   1.047) /_   90.0

ELEMENT = "Line.LINE8"
10         ( 73)    1          0.24209 (   1.048) /_  -30.0
10         ( 74)    2          0.24209 (   1.048) /_ -150.0
10         ( 75)    3          0.24209 (   1.048) /_   90.0
------------
100        (  7)    1          0.24199 (   1.048) /_  -30.0
100        (  8)    2          0.24199 (   1.048) /_ -150.0
100        (  9)    3          0.24199 (   1.048) /_   90.0

ELEMENT = "Line.LINE9"
11         ( 76)    1          0.24202 (   1.048) /_  -30.0
11         ( 77)    2          0.24202 (   1.048) /_ -150.0
11         ( 78)    3          0.24202 (   1.048) /_   90.0
------------
110        ( 10)    1          0.24209 (   1.048) /_  -30.0
110        ( 11)    2          0.24209 (   1.048) /_ -150.0
110        ( 12)    3          0.24209 (   1.048) /_   90.0

ELEMENT = "Line.LINE10"
12         ( 79)    1          0.24193 (   1.048) /_  -30.0
12         ( 80)    2          0.24193 (   1.048) /_ -150.0
12         ( 81)    3          0.24193 (   1.048) /_   90.0
------------
120        ( 13)    1          0.24193 (   1.048) /_  -30.0
120        ( 14)    2          0.24193 (   1.048) /_ -150.0
120        ( 15)    3          0.24193 (   1.048) /_   90.0

ELEMENT = "Line.LINE11"
13         ( 82)    1          0.24184 (   1.047) /_  -30.0
13         ( 83)    2          0.24184 (   1.047) /_ -150.0
13         ( 84)    3          0.24184 (   1.047) /_   90.0
------------
130        ( 16)    1          0.24161 (   1.046) /_  -30.0
130        ( 17)    2          0.24161 (   1.046) /_ -150.0
130        ( 18)    3          0.24161 (   1.046) /_   90.0

ELEMENT = "Line.LINE12"
14         ( 85)    1          0.24184 (   1.047) /_  -30.0
14         ( 86)    2          0.24184 (   1.047) /_ -150.0
14         ( 87)    3          0.24184 (   1.047) /_   90.0
------------
140        ( 19)    1          0.24184 (   1.047) /_  -30.0
140        ( 20)    2          0.24184 (   1.047) /_ -150.0
140        ( 21)    3          0.24184 (   1.047) /_   90.0

ELEMENT = "Line.LINE13"
10         ( 73)    1          0.24209 (   1.048) /_  -30.0
10         ( 74)    2          0.24209 (   1.048) /_ -150.0
10         ( 75)    3          0.24209 (   1.048) /_   90.0
------------
101        ( 22)    1          0.24209 (   1.048) /_  -30.0
101        ( 23)    2          0.24209 (   1.048) /_ -150.0
101        ( 24)    3          0.24209 (   1.048) /_   90.0

ELEMENT = "Line.LINE14"
11         ( 76)    1          0.24202 (   1.048) /_  -30.0
11         ( 77)    2          0.24202 (   1.048) /_ -150.0
11         ( 78)    3          0.24202 (   1.048) /_   90.0
------------
111        ( 25)    1          0.24202 (   1.048) /_  -30.0
111        ( 26)    2          0.24202 (   1.048) /_ -150.0
111        ( 27)    3          0.24202 (   1.048) /_   90.0

ELEMENT = "Line.LINE15"
12         ( 79)    1          0.24193 (   1.048) /_  -30.0
12         ( 80)    2          0.24193 (   1.048) /_ -150.0
12         ( 81)    3          0.24193 (   1.048) /_   90.0
------------
121        ( 28)    1          0.24193 (   1.048) /_  -30.0
121        ( 29)    2          0.24193 (   1.048) /_ -150.0
121        ( 30)    3          0.24193 (   1.048) /_   90.0

ELEMENT = "Line.LINE16"
13         ( 82)    1          0.24184 (   1.047) /_  -30.0
13         ( 83)    2          0.24184 (   1.047) /_ -150.0
13         ( 84)    3          0.24184 (   1.047) /_   90.0
------------
131        ( 31)    1          0.24184 (   1.047) /_  -30.0
131        ( 32)    2          0.24184 (   1.047) /_ -150.0
131        ( 33)    3          0.24184 (   1.047) /_   90.0

ELEMENT = "Line.LINE17"
14         ( 85)    1          0.24184 (   1.047) /_  -30.0
14         ( 86)    2          0.24184 (   1.047) /_ -150.0
14         ( 87)    3          0.24184 (   1.047) /_   90.0
------------
141        ( 34)    1          0.24184 (   1.047) /_  -30.0
141        ( 35)    2          0.24184 (   1.047) /_ -150.0
141        ( 36)    3          0.24184 (   1.047) /_   90.0

ELEMENT = "Line.LINE18"
2          ( 67)    1          0.24237 (   1.049) /_  -30.0
2          ( 68)    2          0.24237 (   1.049) /_ -150.0
2          ( 69)    3          0.24237 (   1.049) /_   90.0
------------
4          ( 88)    1          0.24237 (   1.049) /_  -30.0
4          ( 89)    2          0.24237 (   1.049) /_ -150.0
4          ( 90)    3          0.24237 (   1.049) /_   90.0

ELEMENT = "Line.LINE19"
4          ( 88)    1          0.24237 (   1.049) /_  -30.0
4          ( 89)    2          0.24237 (   1.049) /_ -150.0
4          ( 90)    3          0.24237 (   1.049) /_   90.0
------------
20         ( 91)    1          0.24237 (   1.049) /_  -30.0
20         ( 92)    2          0.24237 (   1.049) /_ -150.0
20         ( 93)    3          0.24237 (   1.049) /_   90.0

ELEMENT = "Line.LINE20"
20         ( 91)    1          0.24237 (   1.049) /_  -30.0
20         ( 92)    2          0.24237 (   1.049) /_ -150.0
20         ( 93)    3          0.24237 (   1.049) /_   90.0
------------
21         ( 94)    1          0.24237 (   1.049) /_  -30.0
21         ( 95)    2          0.24237 (   1.049) /_ -150.0
21         ( 96)    3          0.24237 (   1.049) /_   90.0

ELEMENT = "Line.LINE21"
21         ( 94)    1          0.24237 (   1.049) /_  -30.0
21         ( 95)    2          0.24237 (   1.049) /_ -150.0
21         ( 96)    3          0.24237 (   1.049) /_   90.0
------------
22         ( 97)    1          0.24237 (   1.049) /_  -30.0
22         ( 98)    2          0.24237 (   1.049) /_ -150.0
22         ( 99)    3          0.24237 (   1.049) /_   90.0

ELEMENT = "Line.LINE22"
22         ( 97)    1          0.24237 (   1.049) /_  -30.0
22         ( 98)    2          0.24237 (   1.049) /_ -150.0
22         ( 99)    3          0.24237 (   1.049) /_   90.0
------------
23         (100)    1          0.24237 (   1.049) /_  -30.0
23         (101)    2          0.24237 (   1.049) /_ -150.0
23         (102)    3          0.24237 (   1.049) /_   90.0

ELEMENT = "Line.LINE23"
23         (100)    1          0.24237 (   1.049) /_  -30.0
23         (101)    2          0.24237 (   1.049) /_ -150.0
23         (102)    3          0.24237 (   1.049) /_   90.0
------------
24         (103)    1          0.24237 (   1.049) /_  -30.0
24         (104)    2          0.24237 (   1.049) /_ -150.0
24         (105)    3          0.24237 (   1.049) /_   90.0

ELEMENT = "Line.LINE24"
20         ( 91)    1          0.24237 (   1.049) /_  -30.0
20         ( 92)    2          0.24237 (   1.049) /_ -150.0
20         ( 93)    3          0.24237 (   1.049) /_   90.0
------------
200        ( 37)    1          0.24237 (   1.049) /_  -30.0
200        ( 38)    2          0.24237 (   1.049) /_ -150.0
200        ( 39)    3          0.24237 (   1.049) /_   90.0

ELEMENT = "Line.LINE25"
21         ( 94)    1          0.24237 (   1.049) /_  -30.0
21         ( 95)    2          0.24237 (   1.049) /_ -150.0
21         ( 96)    3          0.24237 (   1.049) /_   90.0
------------
210        ( 40)    1          0.24237 (   1.049) /_  -30.0
210        ( 41)    2          0.24237 (   1.049) /_ -150.0
210        ( 42)    3          0.24237 (   1.049) /_   90.0

ELEMENT = "Line.LINE26"
22         ( 97)    1          0.24237 (   1.049) /_  -30.0
22         ( 98)    2          0.24237 (   1.049) /_ -150.0
22         ( 99)    3          0.24237 (   1.049) /_   90.0
------------
220        ( 43)    1          0.24237 (   1.049) /_  -30.0
220        ( 44)    2          0.24237 (   1.049) /_ -150.0
220        ( 45)    3          0.24237 (   1.049) /_   90.0

ELEMENT = "Line.LINE27"
23         (100)    1          0.24237 (   1.049) /_  -30.0
23         (101)    2          0.24237 (   1.049) /_ -150.0
23         (102)    3          0.24237 (   1.049) /_   90.0
------------
230        ( 46)    1          0.24237 (   1.049) /_  -30.0
230        ( 47)    2          0.24237 (   1.049) /_ -150.0
230        ( 48)    3          0.24237 (   1.049) /_   90.0

ELEMENT = "Line.LINE28"
24         (103)    1          0.24237 (   1.049) /_  -30.0
24         (104)    2          0.24237 (   1.049) /_ -150.0
24         (105)    3          0.24237 (   1.049) /_   90.0
------------
240        ( 49)    1          0.24237 (   1.049) /_  -30.0
240        ( 50)    2          0.24237 (   1.049) /_ -150.0
240        ( 51)    3          0.24237 (   1.049) /_   90.0

ELEMENT = "Line.LINE29"
20         ( 91)    1          0.24237 (   1.049) /_  -30.0
20         ( 92)    2          0.24237 (   1.049) /_ -150.0
20         ( 93)    3          0.24237 (   1.049) /_   90.0
------------
201        ( 52)    1          0.24237 (   1.049) /_  -30.0
201        ( 53)    2          0.24237 (   1.049) /_ -150.0
201        ( 54)    3          0.24237 (   1.049) /_   90.0

ELEMENT = "Line.LINE30"
21         ( 94)    1          0.24237 (   1.049) /_  -30.0
21         ( 95)    2          0.24237 (   1.049) /_ -150.0
21         ( 96)    3          0.24237 (   1.049) /_   90.0
------------
211        ( 55)    1          0.24237 (   1.049) /_  -30.0
211        ( 56)    2          0.24237 (   1.049) /_ -150.0
211        ( 57)    3          0.24237 (   1.049) /_   90.0

ELEMENT = "Line.LINE31"
22         ( 97)    1          0.24237 (   1.049) /_  -30.0
22         ( 98)    2          0.24237 (   1.049) /_ -150.0
22         ( 99)    3          0.24237 (   1.049) /_   90.0
------------
221        ( 58)    1          0.24237 (   1.049) /_  -30.0
221        ( 59)    2          0.24237 (   1.049) /_ -150.0
221        ( 60)    3          0.24237 (   1.049) /_   90.0

ELEMENT = "Line.LINE32"
23         (100)    1          0.24237 (   1.049) /_  -30.0
23         (101)    2          0.24237 (   1.049) /_ -150.0
23         (102)    3          0.24237 (   1.049) /_   90.0
------------
231        ( 61)    1          0.24237 (   1.049) /_  -30.0
231        ( 62)    2          0.24237 (   1.049) /_ -150.0
231        ( 63)    3          0.24237 (   1.049) /_   90.0

ELEMENT = "Line.LINE33"
24         (103)    1          0.24237 (   1.049) /_  -30.0
24         (104)    2          0.24237 (   1.049) /_ -150.0
24         (105)    3          0.24237 (   1.049) /_   90.0
------------
241        ( 64)    1          0.24237 (   1.049) /_  -30.0
241        ( 65)    2          0.24237 (   1.049) /_ -150.0
241        ( 66)    3          0.24237 (   1.049) /_   90.0

= = = = = = = = = = = = = = = = = = =  = = = = = = = = = = =  = =

Power Conversion Elements

Bus       (node ref)  Phase    Magnitude, kV (pu)    Angle

ELEMENT = "Load.LOAD1"
100        (  7)    1          0.24199 (   1.048) /_  -30.0
100        (  8)    2          0.24199 (   1.048) /_ -150.0
100        (  9)    3          0.24199 (   1.048) /_   90.0
100        (  0)    0                0 (       0) /_    0.0

ELEMENT = "Load.LOAD2"
110        ( 10)    1          0.24209 (   1.048) /_  -30.0
110        ( 11)    2          0.24209 (   1.048) /_ -150.0
110        ( 12)    3          0.24209 (   1.048) /_   90.0
110        (  0)    0                0 (       0) /_    0.0

ELEMENT = "Load.LOAD3"
120        ( 13)    1          0.24193 (   1.048) /_  -30.0
120        ( 14)    2          0.24193 (   1.048) /_ -150.0
120        ( 15)    3          0.24193 (   1.048) /_   90.0
120        (  0)    0                0 (       0) /_    0.0

ELEMENT = "Load.LOAD4"
130        ( 16)    1          0.24161 (   1.046) /_  -30.0
130        ( 17)    2          0.24161 (   1.046) /_ -150.0
130        ( 18)    3          0.24161 (   1.046) /_   90.0
130        (  0)    0                0 (       0) /_    0.0

ELEMENT = "Load.LOAD5"
140        ( 19)    1          0.24184 (   1.047) /_  -30.0
140        ( 20)    2          0.24184 (   1.047) /_ -150.0
140        ( 21)    3          0.24184 (   1.047) /_   90.0
140        (  0)    0                0 (       0) /_    0.0

ELEMENT = "Load.LOAD6"
101        ( 22)    1          0.24209 (   1.048) /_  -30.0
101        ( 23)    2          0.24209 (   1.048) /_ -150.0
101        ( 24)    3          0.24209 (   1.048) /_   90.0
101        (  0)    0                0 (       0) /_    0.0

ELEMENT = "Load.LOAD7"
111        ( 25)    1          0.24202 (   1.048) /_  -30.0
111        ( 26)    2          0.24202 (   1.048) /_ -150.0
111        ( 27)    3          0.24202 (   1.048) /_   90.0
111        (  0)    0                0 (       0) /_    0.0

ELEMENT = "Load.LOAD8"
121        ( 28)    1          0.24193 (   1.048) /_  -30.0
121        ( 29)    2          0.24193 (   1.048) /_ -150.0
121        ( 30)    3          0.24193 (   1.048) /_   90.0
121        (  0)    0                0 (       0) /_    0.0

ELEMENT = "Load.LOAD9"
131        ( 31)    1          0.24184 (   1.047) /_  -30.0
131        ( 32)    2          0.24184 (   1.047) /_ -150.0
131        ( 33)    3          0.24184 (   1.047) /_   90.0
131        (  0)    0                0 (       0) /_    0.0

ELEMENT = "Load.LOAD10"
141        ( 34)    1          0.24184 (   1.047) /_  -30.0
141        ( 35)    2          0.24184 (   1.047) /_ -150.0
141        ( 36)    3          0.24184 (   1.047) /_   90.0
141        (  0)    0                0 (       0) /_    0.0

ELEMENT = "Load.LOAD11"
200        ( 37)    1          0.24237 (   1.049) /_  -30.0
200        ( 38)    2          0.24237 (   1.049) /_ -150.0
200        ( 39)    3          0.24237 (   1.049) /_   90.0
200        (  0)    0                0 (       0) /_    0.0

ELEMENT = "Load.LOAD12"
210        ( 40)    1          0.24237 (   1.049) /_  -30.0
210        ( 41)    2          0.24237 (   1.049) /_ -150.0
210        ( 42)    3          0.24237 (   1.049) /_   90.0
210        (  0)    0                0 (       0) /_    0.0

ELEMENT = "Load.LOAD13"
220        ( 43)    1          0.24237 (   1.049) /_  -30.0
220        ( 44)    2          0.24237 (   1.049) /_ -150.0
220        ( 45)    3          0.24237 (   1.049) /_   90.0
220        (  0)    0                0 (       0) /_    0.0

ELEMENT = "Load.LOAD14"
230        ( 46)    1          0.24237 (   1.049) /_  -30.0
230        ( 47)    2          0.24237 (   1.049) /_ -150.0
230        ( 48)    3          0.24237 (   1.049) /_   90.0
230        (  0)    0                0 (       0) /_    0.0

ELEMENT = "Load.LOAD15"
240        ( 49)    1          0.24237 (   1.049) /_  -30.0
240        ( 50)    2          0.24237 (   1.049) /_ -150.0
240        ( 51)    3          0.24237 (   1.049) /_   90.0
240        (  0)    0                0 (       0) /_    0.0

ELEMENT = "Load.LOAD16"
201        ( 52)    1          0.24237 (   1.049) /_  -30.0
201        ( 53)    2          0.24237 (   1.049) /_ -150.0
201        ( 54)    3          0.24237 (   1.049) /_   90.0
201        (  0)    0                0 (       0) /_    0.0

ELEMENT = "Load.LOAD17"
211        ( 55)    1          0.24237 (   1.049) /_  -30.0
211        ( 56)    2          0.24237 (   1.049) /_ -150.0
211        ( 57)    3          0.24237 (   1.049) /_   90.0
211        (  0)    0                0 (       0) /_    0.0

ELEMENT = "Load.LOAD18"
221        ( 58)    1          0.24237 (   1.049) /_  -30.0
221        ( 59)    2          0.24237 (   1.049) /_ -150.0
221        ( 60)    3          0.24237 (   1.049) /_   90.0
221        (  0)    0                0 (       0) /_    0.0

ELEMENT = "Load.LOAD19"
231        ( 61)    1          0.24237 (   1.049) /_  -30.0
231        ( 62)    2          0.24237 (   1.049) /_ -150.0
231        ( 63)    3          0.24237 (   1.049) /_   90.0
231        (  0)    0                0 (       0) /_    0.0

ELEMENT = "Load.LOAD20"
241        ( 64)    1          0.24237 (   1.049) /_  -30.0
241        ( 65)    2          0.24237 (   1.049) /_ -150.0
241        ( 66)    3          0.24237 (   1.049) /_   90.0
241        (  0)    0                0 (       0) /_    0.0

